Command line:
./run_gem5_spec06_benchmark.sh X86 bzip2 /home/piyush/gem5/MTP/spec06_benchmarks_output/bzip2
================= Hardcoded directories ==================
GEM5_DIR:                                     /home/piyush/gem5
SPEC_DIR:                                     /home/piyush/gem5/MTP/spec-x86-cpu-2006
==================== Script inputs =======================
BENCHMARK:                                    bzip2
OUTPUT_DIR:                                   /home/piyush/gem5/MTP/spec06_benchmarks_output/bzip2
==========================================================
Changing to SPEC benchmark runtime directory: /home/piyush/gem5/MTP/spec-x86-cpu-2006/benchspec/CPU2006/401.bzip2/build/build_base_gcc44-64bit.0000


--------- Here goes nothing! Starting gem5! ------------


Global frequency set at 1000000000000 ticks per second
gem5 Simulator System.  https://www.gem5.org
gem5 is copyrighted software; use the --copyright option for details.

gem5 version 23.0.0.1
gem5 compiled Sep  7 2023 16:50:29
gem5 started Sep  7 2023 16:54:56
gem5 executing on MTP, pid 17378
command line: /home/piyush/gem5/build/X86/gem5.opt --debug-flags=BranchOutcomes --debug-file=bzip2_branchtrace --outdir=/home/piyush/gem5/MTP/spec06_benchmarks_output/bzip2 /home/piyush/gem5/MTP/se.py --maxinsts 10000000 --cpu-type=DerivO3CPU --cpu-clock 2GHz --caches --l2cache --mem-size 2GB --benchmark=bzip2 --benchmark_stdout=/home/piyush/gem5/MTP/spec06_benchmarks_output/bzip2/bzip2.out --benchmark_stderr=/home/piyush/gem5/MTP/spec06_benchmarks_output/bzip2/bzip2.err

Selected SPEC_CPU2006 benchmark
--> bzip2
Process stdout file: /home/piyush/gem5/MTP/spec06_benchmarks_output/bzip2/bzip2.out
Process stderr file: /home/piyush/gem5/MTP/spec06_benchmarks_output/bzip2/bzip2.err
['bzip2', 'input.program', 'input.combined']
**** REAL SIMULATION ****
Exiting @ tick 252283500 because exiting with last active thread context
